*.GLOBAL VDD VSS VSS1 
*.SCALE METER 

**** 
*.SUBCKT ACCSHCINX2TS CO0 CO1 A B CI0N CI1N 
.SUBCKT ACCSHCINX2TS CO0 CO1 A B CI0N CI1N VSS VDD
X0 CO1 net124 net137 VDD LPPFET W=1.3U L=0.12U M=1 
X1 CO1 net118 nmcin1n VDD LPPFET W=1.3U L=0.12U M=1 
X10 CO0 net118 net125 VSS LPNFET W=0.92U L=0.12U M=1 
X11 CO0 net124 nmcin0n VSS LPNFET W=0.92U L=0.12U M=1 
X12 net118 B net135 VSS LPNFET W=0.9U L=0.12U M=1 
X13 net118 nmb nma VSS LPNFET W=0.84U L=0.12U M=1 
X14 net124 B nma VSS LPNFET W=0.86U L=0.12U M=1 
X15 net124 nmb net135 VSS LPNFET W=0.92U L=0.12U M=1 
X16 VDD nmb net125 VDD LPPFET W=1.3U L=0.12U M=1 
X17 net125 nmb VSS VSS LPNFET W=0.92U L=0.12U M=1 
X18 VDD CI1N nmcin1n VDD LPPFET W=1.3U L=0.12U M=1 
X19 nmcin1n CI1N VSS VSS LPNFET W=0.92U L=0.12U M=1
X2 CO0 net124 net125 VDD LPPFET W=1.3U L=0.12U M=1 
X20 VDD CI0N nmcin0n VDD LPPFET W=1.3U L=0.12U M=1 
X21 nmcin0n CI0N VSS VSS LPNFET W=0.92U L=0.12U M=1 
X22 VDD B nmb VDD LPPFET W=1.28U L=0.12U M=1 
X23 nmb B VSS VSS LPNFET W=0.92U L=0.12U M=1 
X24 VDD A nma VDD LPPFET W=1.3U L=0.12U M=1 
X25 nma A VSS VSS LPNFET W=0.9U L=0.12U M=1 
X26 VDD nma net135 VDD LPPFET W=1.24U L=0.12U M=1 
X27 net135 nma VSS VSS LPNFET W=0.9U L=0.12U M=1 
X28 VDD nma net137 VDD LPPFET W=1.24U L=0.12U M=1 
X29 net137 nma VSS VSS LPNFET W=0.9U L=0.12U M=1 
X3 CO0 net118 nmcin0n VDD LPPFET W=1.3U L=0.12U M=1 
X4 net118 nmb net135 VDD LPPFET W=1.24U L=0.12U M=1 
X5 net118 B nma VDD LPPFET W=1.28U L=0.12U M=1 
X6 net124 nmb nma VDD LPPFET W=1.28U L=0.12U M=1 
X7 net124 B net135 VDD LPPFET W=1.28U L=0.12U M=1 
X8 CO1 net118 net137 VSS LPNFET W=0.86U L=0.12U M=1 
X9 CO1 net124 nmcin1n VSS LPNFET W=0.86U L=0.12U M=1 
.ENDS ACCSHCINX2TS 

**** 
*.SUBCKT ACCSHCINX4TS CO0 CO1 A B CI0N CI1N 
.SUBCKT ACCSHCINX4TS CO0 CO1 A B CI0N CI1N VSS VDD
X0 CO1 net126 net139 VDD LPPFET W=1.2U L=0.12U M=1 
X1 CO1 net120 net129 VDD LPPFET W=2.6U L=0.12U M=1 
X10 CO0 net120 net127 VSS LPNFET W=0.92U L=0.12U M=1 
X11 CO0 net126 net131 VSS LPNFET W=1.84U L=0.12U M=1 
X12 net120 B net137 VSS LPNFET W=0.9U L=0.12U M=1 
X13 net120 net133 net140 VSS LPNFET W=0.84U L=0.12U M=1 
X14 net126 B net140 VSS LPNFET W=0.86U L=0.12U M=1 
X15 net126 net133 net137 VSS LPNFET W=0.92U L=0.12U M=1 
X16 VDD net133 net127 VDD LPPFET W=1.3U L=0.12U M=1 
X17 net127 net133 VSS VSS LPNFET W=0.92U L=0.12U M=1 
X18 VDD CI1N net129 VDD LPPFET W=2.6U L=0.12U M=1 
X19 net129 CI1N VSS VSS LPNFET W=1.84U L=0.12U M=1 
X2 CO0 net126 net127 VDD LPPFET W=1.2U L=0.12U M=1 
X20 VDD CI0N net131 VDD LPPFET W=2.6U L=0.12U M=1 
X21 net131 CI0N VSS VSS LPNFET W=1.84U L=0.12U M=1 
X22 VDD B net133 VDD LPPFET W=1.28U L=0.12U M=1 
X23 net133 B VSS VSS LPNFET W=0.92U L=0.12U M=1 
X24 VDD A net140 VDD LPPFET W=1.3U L=0.12U M=1 
X25 net140 A VSS VSS LPNFET W=0.9U L=0.12U M=1 
X26 VDD net140 net137 VDD LPPFET W=1.24U L=0.12U M=1 
X27 net137 net140 VSS VSS LPNFET W=0.9U L=0.12U M=1 
X28 VDD net140 net139 VDD LPPFET W=1.24U L=0.12U M=1 
X29 net139 net140 VSS VSS LPNFET W=0.9U L=0.12U M=1 
X3 CO0 net120 net131 VDD LPPFET W=2.34U L=0.12U M=1 
X4 net120 net133 net137 VDD LPPFET W=1.24U L=0.12U M=1 
X5 net120 B net140 VDD LPPFET W=1.28U L=0.12U M=1 
X6 net126 net133 net140 VDD LPPFET W=1.28U L=0.12U M=1 
X7 net126 B net137 VDD LPPFET W=1.28U L=0.12U M=1 
X8 CO1 net120 net139 VSS LPNFET W=0.92U L=0.12U M=1 
X9 CO1 net126 net129 VSS LPNFET W=1.72U L=0.12U M=1 
.ENDS ACCSHCINX4TS 

**** 
*.SUBCKT ACCSHCONX2TS CO0N CO1N A B CI0 CI1 
.SUBCKT ACCSHCONX2TS CO0N CO1N A B CI0 CI1 VSS VDD
X0 CO1N net99 net97 VDD LPPFET W=1.3U L=0.12U M=1 
X1 CO1N net96 nmcin1 VDD LPPFET W=1.28U L=0.12U M=1 
X10 net96 B net109 VSS LPNFET W=0.86U L=0.12U M=1 
X11 net96 nmb nma VSS LPNFET W=0.92U L=0.12U M=1 
X12 VDD B net97 VDD LPPFET W=1.3U L=0.12U M=1 
X13 net97 B VSS VSS LPNFET W=0.88U L=0.12U M=1 
X14 VDD net96 net99 VDD LPPFET W=1.28U L=0.12U M=1 
X15 net99 net96 VSS VSS LPNFET W=0.9U L=0.12U M=1 
X16 VDD CI1 nmcin1 VDD LPPFET W=1.3U L=0.12U M=1 
X17 nmcin1 CI1 VSS VSS LPNFET W=0.86U L=0.12U M=1 
X18 VDD CI0 nmcin0 VDD LPPFET W=1.3U L=0.12U M=1 
X19 nmcin0 CI0 VSS VSS LPNFET W=0.86U L=0.12U M=1 
X2 CO0N net99 net111 VDD LPPFET W=1.28U L=0.12U M=1 
X20 VDD B nmb VDD LPPFET W=1.3U L=0.12U M=1 
X21 nmb B VSS VSS LPNFET W=0.88U L=0.12U M=1 
X22 VDD A nma VDD LPPFET W=1.3U L=0.12U M=1 
X23 nma A VSS VSS LPNFET W=0.86U L=0.12U M=1 
X24 VDD nma net109 VDD LPPFET W=1.3U L=0.12U M=1 
X25 net109 nma VSS VSS LPNFET W=0.86U L=0.12U M=1 
X26 VDD A net111 VDD LPPFET W=1.3U L=0.12U M=1 
X27 net111 A VSS VSS LPNFET W=0.92U L=0.12U M=1 
X3 CO0N net96 nmcin0 VDD LPPFET W=1.2U L=0.12U M=1 
X4 net96 nmb net109 VDD LPPFET W=1.3U L=0.12U M=1 
X5 net96 B nma VDD LPPFET W=1.3U L=0.12U M=1 
X6 CO1N net96 net97 VSS LPNFET W=0.92U L=0.12U M=1 
X7 CO1N net99 nmcin1 VSS LPNFET W=0.88U L=0.12U M=1 
X8 CO0N net96 net111 VSS LPNFET W=0.88U L=0.12U M=1 
X9 CO0N net99 nmcin0 VSS LPNFET W=0.86U L=0.12U M=1 
.ENDS ACCSHCONX2TS 

**** 
*.SUBCKT ACCSHCONX4TS CO0N CO1N A B CI0 CI1 
.SUBCKT ACCSHCONX4TS CO0N CO1N A B CI0 CI1 VSS VDD
X0 CO1N net99 net97 VDD LPPFET W=1.3U L=0.12U M=1 
X1 CO1N net96 nmcin1 VDD LPPFET W=2.5U L=0.12U M=1 
X10 net96 B net109 VSS LPNFET W=0.86U L=0.12U M=1 
X11 net96 nmb nma VSS LPNFET W=0.92U L=0.12U M=1 
X12 VDD B net97 VDD LPPFET W=1.3U L=0.12U M=1 
X13 net97 B VSS VSS LPNFET W=0.88U L=0.12U M=1 
X14 VDD net96 net99 VDD LPPFET W=1.24U L=0.12U M=1 
X15 net99 net96 VSS VSS LPNFET W=0.9U L=0.12U M=1 
X16 VDD CI1 nmcin1 VDD LPPFET W=2.6U L=0.12U M=1 
X17 nmcin1 CI1 VSS VSS LPNFET W=1.84U L=0.12U M=1 
X18 VDD CI0 nmcin0 VDD LPPFET W=2.6U L=0.12U M=1 
X19 nmcin0 CI0 VSS VSS LPNFET W=1.84U L=0.12U M=1 
X2 CO0N net99 net111 VDD LPPFET W=1.22U L=0.12U M=1 
X20 VDD B nmb VDD LPPFET W=1.3U L=0.12U M=1 
X21 nmb B VSS VSS LPNFET W=0.88U L=0.12U M=1 
X22 VDD A nma VDD LPPFET W=1.3U L=0.12U M=1 
X23 nma A VSS VSS LPNFET W=0.86U L=0.12U M=1 
X24 VDD nma net109 VDD LPPFET W=1.3U L=0.12U M=1 
X25 net109 nma VSS VSS LPNFET W=0.86U L=0.12U M=1 
X26 VDD A net111 VDD LPPFET W=1.3U L=0.12U M=1 
X27 net111 A VSS VSS LPNFET W=0.92U L=0.12U M=1 
X3 CO0N net96 nmcin0 VDD LPPFET W=2.5U L=0.12U M=1 
X4 net96 nmb net109 VDD LPPFET W=1.3U L=0.12U M=1 
X5 net96 B nma VDD LPPFET W=1.3U L=0.12U M=1 
X6 CO1N net96 net97 VSS LPNFET W=0.92U L=0.12U M=1 
X7 CO1N net99 nmcin1 VSS LPNFET W=1.82U L=0.12U M=1 
X8 CO0N net96 net111 VSS LPNFET W=0.88U L=0.12U M=1 
X9 CO0N net99 nmcin0 VSS LPNFET W=1.82U L=0.12U M=1 
.ENDS ACCSHCONX4TS 

**** 
*.SUBCKT ACCSIHCONX2TS CO0N CO1N A B 
.SUBCKT ACCSIHCONX2TS CO0N CO1N A B VSS VDD
X0 CO1N B VSS VSS LPNFET W=0.72U L=0.12U M=1 
X1 CO1N A VSS VSS LPNFET W=0.72U L=0.12U M=1 
X2 VDD B hnet8 VDD LPPFET W=1.3U L=0.12U M=1 
X3 hnet8 A CO1N VDD LPPFET W=1.3U L=0.12U M=1 
X4 hnet16 A VSS VSS LPNFET W=0.92U L=0.12U M=1 
X5 CO0N B hnet16 VSS LPNFET W=0.92U L=0.12U M=1 
X6 VDD A CO0N VDD LPPFET W=0.96U L=0.12U M=1 
X7 VDD B CO0N VDD LPPFET W=0.96U L=0.12U M=1 
.ENDS ACCSIHCONX2TS 

**** 
*.SUBCKT ACCSIHCONX4TS CO0N CO1N A B 
.SUBCKT ACCSIHCONX4TS CO0N CO1N A B VSS VDD
X0 CO1N B VSS VSS LPNFET W=1.32U L=0.12U M=1 
X1 CO1N A VSS VSS LPNFET W=1.32U L=0.12U M=1 
X10 VDD A CO0N VDD LPPFET W=1.88U L=0.12U M=1 
X11 VDD B CO0N VDD LPPFET W=1.88U L=0.12U M=1 
X2 VDD B hnet9 VDD LPPFET W=1.3U L=0.12U M=1 
X3 hnet9 A CO1N VDD LPPFET W=1.3U L=0.12U M=1 
X4 VDD B hnet7 VDD LPPFET W=1.3U L=0.12U M=1 
X5 hnet7 A CO1N VDD LPPFET W=1.3U L=0.12U M=1 
X6 hnet18 A VSS VSS LPNFET W=0.9U L=0.12U M=1 
X7 CO0N B hnet18 VSS LPNFET W=0.9U L=0.12U M=1 
X8 hnet14 A VSS VSS LPNFET W=0.9U L=0.12U M=1 
X9 CO0N B hnet14 VSS LPNFET W=0.9U L=0.12U M=1 
.ENDS ACCSIHCONX4TS 

**** 
*.SUBCKT ACHCINX2TS CO A B CIN 
.SUBCKT ACHCINX2TS CO A B CIN VSS VDD
X0 VDD nmb net59 VDD LPPFET W=1.3U L=0.12U M=1 
X1 net59 nmb VSS VSS LPNFET W=0.92U L=0.12U M=1 
X10 CO net104 net59 VDD LPPFET W=1.3U L=0.12U M=1 
X11 CO net98 nmcinn VDD LPPFET W=1.22U L=0.12U M=1 
X12 net98 nmb net67 VDD LPPFET W=1.02U L=0.12U M=1 
X13 net98 B nma VDD LPPFET W=1.3U L=0.12U M=1 
X14 net104 nmb nma VDD LPPFET W=1.16U L=0.12U M=1 
X15 net104 B net67 VDD LPPFET W=1.02U L=0.12U M=1 
X16 CO net98 net59 VSS LPNFET W=0.92U L=0.12U M=1 
X17 CO net104 nmcinn VSS LPNFET W=0.92U L=0.12U M=1 
X18 net98 B net67 VSS LPNFET W=0.74U L=0.12U M=1 
X19 net98 nmb nma VSS LPNFET W=0.84U L=0.12U M=1 
X2 VDD CIN nmcinn VDD LPPFET W=1.22U L=0.12U M=1 
X20 net104 B nma VSS LPNFET W=0.88U L=0.12U M=1 
X21 net104 nmb net67 VSS LPNFET W=0.76U L=0.12U M=1 
X3 nmcinn CIN VSS VSS LPNFET W=0.92U L=0.12U M=1 
X4 VDD B nmb VDD LPPFET W=1.3U L=0.12U M=1 
X5 nmb B VSS VSS LPNFET W=0.92U L=0.12U M=1 
X6 VDD A nma VDD LPPFET W=1.3U L=0.12U M=1 
X7 nma A VSS VSS LPNFET W=0.92U L=0.12U M=1 
X8 VDD nma net67 VDD LPPFET W=1.02U L=0.12U M=1 
X9 net67 nma VSS VSS LPNFET W=0.74U L=0.12U M=1 
.ENDS ACHCINX2TS 

**** 
*.SUBCKT ACHCINX4TS CO A B CIN 
.SUBCKT ACHCINX4TS CO A B CIN VSS VDD
X0 VDD net64 net60 VDD LPPFET W=1.3U L=0.12U M=1 
X1 net60 net64 VSS VSS LPNFET W=0.92U L=0.12U M=1 
X10 CO net105 net60 VDD LPPFET W=1.3U L=0.12U M=1 
X11 CO net99 net62 VDD LPPFET W=2.36U L=0.12U M=1 
X12 net99 net64 net68 VDD LPPFET W=1.24U L=0.12U M=1 
X13 net99 B net66 VDD LPPFET W=1.3U L=0.12U M=1 
X14 net105 net64 net66 VDD LPPFET W=1.28U L=0.12U M=1 
X15 net105 B net68 VDD LPPFET W=1.28U L=0.12U M=1 
X16 CO net99 net60 VSS LPNFET W=0.92U L=0.12U M=1 
X17 CO net105 net62 VSS LPNFET W=1.84U L=0.12U M=1 
X18 net99 B net68 VSS LPNFET W=0.92U L=0.12U M=1 
X19 net99 net64 net66 VSS LPNFET W=0.88U L=0.12U M=1 
X2 VDD CIN net62 VDD LPPFET W=2.36U L=0.12U M=1 
X20 net105 B net66 VSS LPNFET W=0.86U L=0.12U M=1 
X21 net105 net64 net68 VSS LPNFET W=0.92U L=0.12U M=1 
X3 net62 CIN VSS VSS LPNFET W=1.84U L=0.12U M=1 
X4 VDD B net64 VDD LPPFET W=1.3U L=0.12U M=1 
X5 net64 B VSS VSS LPNFET W=0.92U L=0.12U M=1 
X6 VDD A net66 VDD LPPFET W=1.3U L=0.12U M=1 
X7 net66 A VSS VSS LPNFET W=0.92U L=0.12U M=1 
X8 VDD net66 net68 VDD LPPFET W=1.24U L=0.12U M=1 
X9 net68 net66 VSS VSS LPNFET W=0.92U L=0.12U M=1 
.ENDS ACHCINX4TS 

**** 
*.SUBCKT ACHCONX2TS CON A B CI 
.SUBCKT ACHCONX2TS CON A B CI VSS VDD
X0 VDD B nmb VDD LPPFET W=1.3U L=0.12U M=1 
X1 nmb B VSS VSS LPNFET W=0.92U L=0.12U M=1 
X10 CON net104 net63 VDD LPPFET W=1.3U L=0.12U M=1 
X11 CON net98 nmcin VDD LPPFET W=1.22U L=0.12U M=1 
X12 net98 nmb net67 VDD LPPFET W=1.02U L=0.12U M=1 
X13 net98 B nma VDD LPPFET W=1.3U L=0.12U M=1 
X14 net104 nmb nma VDD LPPFET W=1.16U L=0.12U M=1 
X15 net104 B net67 VDD LPPFET W=1.02U L=0.12U M=1 
X16 CON net98 net63 VSS LPNFET W=0.92U L=0.12U M=1 
X17 CON net104 nmcin VSS LPNFET W=0.92U L=0.12U M=1 
X18 net98 B net67 VSS LPNFET W=0.74U L=0.12U M=1 
X19 net98 nmb nma VSS LPNFET W=0.84U L=0.12U M=1 
X2 VDD CI nmcin VDD LPPFET W=1.22U L=0.12U M=1 
X20 net104 B nma VSS LPNFET W=0.88U L=0.12U M=1 
X21 net104 nmb net67 VSS LPNFET W=0.76U L=0.12U M=1 
X3 nmcin CI VSS VSS LPNFET W=0.92U L=0.12U M=1 
X4 VDD B net63 VDD LPPFET W=1.3U L=0.12U M=1 
X5 net63 B VSS VSS LPNFET W=0.92U L=0.12U M=1 
X6 VDD A nma VDD LPPFET W=1.3U L=0.12U M=1 
X7 nma A VSS VSS LPNFET W=0.92U L=0.12U M=1 
X8 VDD nma net67 VDD LPPFET W=1.02U L=0.12U M=1 
X9 net67 nma VSS VSS LPNFET W=0.74U L=0.12U M=1 
.ENDS ACHCONX2TS 

**** 
*.SUBCKT ACHCONX4TS CON A B CI 
.SUBCKT ACHCONX4TS CON A B CI VSS VDD
X0 VDD B net60 VDD LPPFET W=1.3U L=0.12U M=1 
X1 net60 B VSS VSS LPNFET W=0.92U L=0.12U M=1 
X10 CON net105 net64 VDD LPPFET W=1.3U L=0.12U M=1 
X11 CON net99 net62 VDD LPPFET W=2.36U L=0.12U M=1 
X12 net99 net60 net68 VDD LPPFET W=1.24U L=0.12U M=1 
X13 net99 B net66 VDD LPPFET W=1.3U L=0.12U M=1 
X14 net105 net60 net66 VDD LPPFET W=1.28U L=0.12U M=1 
X15 net105 B net68 VDD LPPFET W=1.28U L=0.12U M=1 
X16 CON net99 net64 VSS LPNFET W=0.92U L=0.12U M=1 
X17 CON net105 net62 VSS LPNFET W=1.84U L=0.12U M=1 
X18 net99 B net68 VSS LPNFET W=0.92U L=0.12U M=1 
X19 net99 net60 net66 VSS LPNFET W=0.88U L=0.12U M=1 
X2 VDD CI net62 VDD LPPFET W=2.36U L=0.12U M=1 
X20 net105 B net66 VSS LPNFET W=0.86U L=0.12U M=1 
X21 net105 net60 net68 VSS LPNFET W=0.92U L=0.12U M=1 
X3 net62 CI VSS VSS LPNFET W=1.84U L=0.12U M=1 
X4 VDD B net64 VDD LPPFET W=1.3U L=0.12U M=1 
X5 net64 B VSS VSS LPNFET W=0.92U L=0.12U M=1 
X6 VDD A net66 VDD LPPFET W=1.3U L=0.12U M=1 
X7 net66 A VSS VSS LPNFET W=0.92U L=0.12U M=1 
X8 VDD net66 net68 VDD LPPFET W=1.24U L=0.12U M=1 
X9 net68 net66 VSS VSS LPNFET W=0.92U L=0.12U M=1 
.ENDS ACHCONX4TS 

**** 
*.SUBCKT ADDFHX1TS CO S A B CI 
.SUBCKT ADDFHX1TS CO S A B CI VSS VDD
X0 net103 net121 nmb VDD LPPFET W=0.5U L=0.12U M=1 
X1 net103 net115 nmcin VDD LPPFET W=0.5U L=0.12U M=1 
X10 net109 net115 nmcin VSS LPNFET W=0.36U L=0.12U M=1 
X11 net109 net121 net122 VSS LPNFET W=0.36U L=0.12U M=1 
X12 net115 B net134 VSS LPNFET W=0.52U L=0.12U M=1 
X13 net115 nmb nma VSS LPNFET W=0.52U L=0.12U M=1 
X14 net121 B nma VSS LPNFET W=0.52U L=0.12U M=1 
X15 net121 nmb net134 VSS LPNFET W=0.52U L=0.12U M=1 
X16 VDD nmcin net122 VDD LPPFET W=0.5U L=0.12U M=1 
X17 net122 nmcin VSS VSS LPNFET W=0.36U L=0.12U M=1 
X18 VDD net103 CO VDD LPPFET W=0.64U L=0.12U M=1 
X19 CO net103 VSS VSS LPNFET W=0.46U L=0.12U M=1 
X2 net109 net121 nmcin VDD LPPFET W=0.5U L=0.12U M=1 
X20 VDD net109 S VDD LPPFET W=0.64U L=0.12U M=1 
X21 S net109 VSS VSS LPNFET W=0.46U L=0.12U M=1 
X22 VDD CI nmcin VDD LPPFET W=0.72U L=0.12U M=1 
X23 nmcin CI VSS VSS LPNFET W=0.52U L=0.12U M=1 
X24 VDD B nmb VDD LPPFET W=1.14U L=0.12U M=1 
X25 nmb B VSS VSS LPNFET W=0.82U L=0.12U M=1 
X26 VDD A net132 VDD LPPFET W=0.32U L=0.12U M=1 
X27 net132 A VSS VSS LPNFET W=0.24U L=0.12U M=1 
X28 VDD net132 net134 VDD LPPFET W=0.76U L=0.12U M=1 
X29 net134 net132 VSS VSS LPNFET W=0.52U L=0.12U M=1 
X3 net109 net115 net122 VDD LPPFET W=0.5U L=0.12U M=1 
X30 VDD A nma VDD LPPFET W=0.8U L=0.12U M=1 
X31 nma A VSS VSS LPNFET W=0.58U L=0.12U M=1 
X4 net115 nmb net134 VDD LPPFET W=0.72U L=0.12U M=1 
X5 net115 B nma VDD LPPFET W=0.72U L=0.12U M=1 
X6 net121 nmb nma VDD LPPFET W=0.72U L=0.12U M=1 
X7 net121 B net134 VDD LPPFET W=0.72U L=0.12U M=1 
X8 net103 net115 nmb VSS LPNFET W=0.36U L=0.12U M=1 
X9 net103 net121 nmcin VSS LPNFET W=0.36U L=0.12U M=1 
.ENDS ADDFHX1TS 

**** 
*.SUBCKT ADDFHX2TS CO S A B CI 
.SUBCKT ADDFHX2TS CO S A B CI VSS VDD
X0 net104 net122 nmb VDD LPPFET W=0.96U L=0.12U M=1 
X1 net104 net92 nmcin VDD LPPFET W=0.94U L=0.12U M=1 
X10 net110 net92 nmcin VSS LPNFET W=0.6U L=0.12U M=1 
X11 net110 net122 net123 VSS LPNFET W=0.6U L=0.12U M=1 
X12 net92 B net135 VSS LPNFET W=1.1U L=0.12U M=1 
X13 net92 nmb nma VSS LPNFET W=1.1U L=0.12U M=1 
X14 net122 B nma VSS LPNFET W=1.1U L=0.12U M=1 
X15 net122 nmb net135 VSS LPNFET W=1.1U L=0.12U M=1 
X16 VDD nmcin net123 VDD LPPFET W=1.02U L=0.12U M=1 
X17 net123 nmcin VSS VSS LPNFET W=0.66U L=0.12U M=1 
X18 VDD net104 CO VDD LPPFET W=1.28U L=0.12U M=1 
X19 CO net104 VSS VSS LPNFET W=0.92U L=0.12U M=1 
X2 net110 net122 nmcin VDD LPPFET W=0.92U L=0.12U M=1 
X20 VDD net110 S VDD LPPFET W=1.28U L=0.12U M=1 
X21 S net110 VSS VSS LPNFET W=0.92U L=0.12U M=1 
X22 VDD CI nmcin VDD LPPFET W=1.3U L=0.12U M=1 
X23 nmcin CI VSS VSS LPNFET W=0.92U L=0.12U M=1 
X24 VDD B nmb VDD LPPFET W=2.12U L=0.12U M=1 
X25 nmb B VSS VSS LPNFET W=1.52U L=0.12U M=1 
X26 VDD A net133 VDD LPPFET W=0.66U L=0.12U M=1 
X27 net133 A VSS VSS LPNFET W=0.48U L=0.12U M=1 
X28 VDD net133 net135 VDD LPPFET W=1.64U L=0.12U M=1 
X29 net135 net133 VSS VSS LPNFET W=1.06U L=0.12U M=1 
X3 net110 net92 net123 VDD LPPFET W=1.02U L=0.12U M=1 
X30 VDD A nma VDD LPPFET W=1.64U L=0.12U M=1 
X31 nma A VSS VSS LPNFET W=1.18U L=0.12U M=1 
X4 net92 nmb net135 VDD LPPFET W=1.64U L=0.12U M=1 
X5 net92 B nma VDD LPPFET W=1.64U L=0.12U M=1 
X6 net122 nmb nma VDD LPPFET W=1.64U L=0.12U M=1 
X7 net122 B net135 VDD LPPFET W=1.64U L=0.12U M=1 
X8 net104 net92 nmb VSS LPNFET W=0.6U L=0.12U M=1 
X9 net104 net122 nmcin VSS LPNFET W=0.6U L=0.12U M=1 
.ENDS ADDFHX2TS 

**** 
*.SUBCKT ADDFHX4TS CO S A B CI 
.SUBCKT ADDFHX4TS CO S A B CI VSS VDD
X0 net103 net121 nmb VDD LPPFET W=1.86U L=0.12U M=1 
X1 net103 net115 nmcin VDD LPPFET W=1.86U L=0.12U M=1 
X10 net109 net115 nmcin VSS LPNFET W=1.48U L=0.12U M=1 
X11 net109 net121 net122 VSS LPNFET W=1.4U L=0.12U M=1 
X12 net115 B net134 VSS LPNFET W=2.22U L=0.12U M=1 
X13 net115 nmb nma VSS LPNFET W=2.22U L=0.12U M=1 
X14 net121 B nma VSS LPNFET W=2.22U L=0.12U M=1 
X15 net121 nmb net134 VSS LPNFET W=2.22U L=0.12U M=1 
X16 VDD nmcin net122 VDD LPPFET W=1.96U L=0.12U M=1 
X17 net122 nmcin VSS VSS LPNFET W=1.34U L=0.12U M=1 
X18 VDD net103 CO VDD LPPFET W=2.56U L=0.12U M=1 
X19 CO net103 VSS VSS LPNFET W=1.82U L=0.12U M=1 
X2 net109 net121 nmcin VDD LPPFET W=1.86U L=0.12U M=1 
X20 VDD net109 S VDD LPPFET W=2.56U L=0.12U M=1 
X21 S net109 VSS VSS LPNFET W=1.82U L=0.12U M=1 
X22 VDD CI nmcin VDD LPPFET W=2.58U L=0.12U M=1 
X23 nmcin CI VSS VSS LPNFET W=1.84U L=0.12U M=1 
X24 VDD B nmb VDD LPPFET W=4.32U L=0.12U M=1 
X25 nmb B VSS VSS LPNFET W=3.24U L=0.12U M=1 
X26 VDD A net132 VDD LPPFET W=1.3U L=0.12U M=1 
X27 net132 A VSS VSS LPNFET W=0.8U L=0.12U M=1 
X28 VDD net132 net134 VDD LPPFET W=3.24U L=0.12U M=1 
X29 net134 net132 VSS VSS LPNFET W=2.26U L=0.12U M=1 
X3 net109 net115 net122 VDD LPPFET W=1.86U L=0.12U M=1 
X30 VDD A nma VDD LPPFET W=3.24U L=0.12U M=1 
X31 nma A VSS VSS LPNFET W=2.34U L=0.12U M=1 
X4 net115 nmb net134 VDD LPPFET W=3.18U L=0.12U M=1 
X5 net115 B nma VDD LPPFET W=3.18U L=0.12U M=1 
X6 net121 nmb nma VDD LPPFET W=3.18U L=0.12U M=1 
X7 net121 B net134 VDD LPPFET W=3.18U L=0.12U M=1 
X8 net103 net115 nmb VSS LPNFET W=1.48U L=0.12U M=1 
X9 net103 net121 nmcin VSS LPNFET W=1.52U L=0.12U M=1 
.ENDS ADDFHX4TS 

**** 
*.SUBCKT ADDFHXLTS CO S A B CI 
.SUBCKT ADDFHXLTS CO S A B CI VSS VDD
X0 net103 net121 nmb VDD LPPFET W=0.56U L=0.12U M=1 
X1 net103 net115 nmcin VDD LPPFET W=0.56U L=0.12U M=1 
X10 net109 net115 nmcin VSS LPNFET W=0.32U L=0.12U M=1 
X11 net109 net121 net122 VSS LPNFET W=0.32U L=0.12U M=1 
X12 net115 B net134 VSS LPNFET W=0.32U L=0.12U M=1 
X13 net115 nmb nma VSS LPNFET W=0.32U L=0.12U M=1 
X14 net121 B nma VSS LPNFET W=0.32U L=0.12U M=1 
X15 net121 nmb net134 VSS LPNFET W=0.32U L=0.12U M=1 
X16 VDD nmcin net122 VDD LPPFET W=0.28U L=0.12U M=1 
X17 net122 nmcin VSS VSS LPNFET W=0.2U L=0.12U M=1 
X18 VDD net103 CO VDD LPPFET W=0.42U L=0.12U M=1 
X19 CO net103 VSS VSS LPNFET W=0.24U L=0.12U M=1 
X2 net109 net121 nmcin VDD LPPFET W=0.56U L=0.12U M=1 
X20 VDD net109 S VDD LPPFET W=0.42U L=0.12U M=1 
X21 S net109 VSS VSS LPNFET W=0.24U L=0.12U M=1 
X22 VDD CI nmcin VDD LPPFET W=0.28U L=0.12U M=1 
X23 nmcin CI VSS VSS LPNFET W=0.2U L=0.12U M=1 
X24 VDD B nmb VDD LPPFET W=0.28U L=0.12U M=1 
X25 nmb B VSS VSS LPNFET W=0.2U L=0.12U M=1 
X26 VDD A net132 VDD LPPFET W=0.28U L=0.12U M=1 
X27 net132 A VSS VSS LPNFET W=0.2U L=0.12U M=1 
X28 VDD net132 net134 VDD LPPFET W=0.28U L=0.12U M=1 
X29 net134 net132 VSS VSS LPNFET W=0.2U L=0.12U M=1 
X3 net109 net115 net122 VDD LPPFET W=0.56U L=0.12U M=1 
X30 VDD A nma VDD LPPFET W=0.28U L=0.12U M=1 
X31 nma A VSS VSS LPNFET W=0.2U L=0.12U M=1 
X4 net115 nmb net134 VDD LPPFET W=0.56U L=0.12U M=1 
X5 net115 B nma VDD LPPFET W=0.56U L=0.12U M=1 
X6 net121 nmb nma VDD LPPFET W=0.56U L=0.12U M=1 
X7 net121 B net134 VDD LPPFET W=0.56U L=0.12U M=1 
X8 net103 net115 nmb VSS LPNFET W=0.32U L=0.12U M=1 
X9 net103 net121 nmcin VSS LPNFET W=0.32U L=0.12U M=1 
.ENDS ADDFHXLTS 

**** 
*.SUBCKT ADDFX1TS CO S A B CI 
.SUBCKT ADDFX1TS CO S A B CI VSS VDD
X0 xo nmb nma VDD LPPFET W=0.5U L=0.12U M=1 
X1 xn net111 nma VDD LPPFET W=0.5U L=0.12U M=1 
X10 xo nma net111 VSS LPNFET W=0.54U L=0.12U M=1 
X11 xn nma nmb VSS LPNFET W=0.54U L=0.12U M=1 
X12 nmcin xo net80 VSS LPNFET W=0.36U L=0.12U M=1 
X13 net80 xn nmb VSS LPNFET W=0.36U L=0.12U M=1 
X14 net110 nmcin xn VSS LPNFET W=0.36U L=0.12U M=1 
X15 net110 CI xo VSS LPNFET W=0.36U L=0.12U M=1 
X16 VDD nmb net111 VDD LPPFET W=0.9U L=0.12U M=1 
X17 net111 nmb VSS VSS LPNFET W=0.64U L=0.12U M=1 
X18 VDD net110 S VDD LPPFET W=0.64U L=0.12U M=1 
X19 S net110 VSS VSS LPNFET W=0.46U L=0.12U M=1 
X2 xn nma net111 VDD LPPFET W=0.76U L=0.12U M=1 
X20 VDD net80 CO VDD LPPFET W=0.64U L=0.12U M=1 
X21 CO net80 VSS VSS LPNFET W=0.46U L=0.12U M=1 
X22 VDD CI nmcin VDD LPPFET W=0.5U L=0.12U M=1 
X23 nmcin CI VSS VSS LPNFET W=0.36U L=0.12U M=1 
X24 VDD B nmb VDD LPPFET W=1.28U L=0.12U M=1 
X25 nmb B VSS VSS LPNFET W=0.92U L=0.12U M=1 
X26 VDD A nma VDD LPPFET W=1.28U L=0.12U M=1 
X27 nma A VSS VSS LPNFET W=0.92U L=0.12U M=1 
X3 xo nma nmb VDD LPPFET W=0.76U L=0.12U M=1 
X4 nmcin xn net80 VDD LPPFET W=0.5U L=0.12U M=1 
X5 net80 xo nmb VDD LPPFET W=0.5U L=0.12U M=1 
X6 net110 CI xn VDD LPPFET W=0.5U L=0.12U M=1 
X7 net110 nmcin xo VDD LPPFET W=0.5U L=0.12U M=1 
X8 xo net111 nma VSS LPNFET W=0.36U L=0.12U M=1 
X9 xn nmb nma VSS LPNFET W=0.36U L=0.12U M=1 
.ENDS ADDFX1TS 

**** 
*.SUBCKT ADDFX2TS CO S A B CI 
.SUBCKT ADDFX2TS CO S A B CI VSS VDD
X0 xo nmb nma VDD LPPFET W=0.5U L=0.12U M=1 
X1 xn net111 nma VDD LPPFET W=0.5U L=0.12U M=1 
X10 xo nma net111 VSS LPNFET W=0.54U L=0.12U M=1 
X11 xn nma nmb VSS LPNFET W=0.54U L=0.12U M=1 
X12 nmcin xo net80 VSS LPNFET W=0.36U L=0.12U M=1 
X13 net80 xn nmb VSS LPNFET W=0.36U L=0.12U M=1 
X14 net110 nmcin xn VSS LPNFET W=0.36U L=0.12U M=1 
X15 net110 CI xo VSS LPNFET W=0.36U L=0.12U M=1 
X16 VDD nmb net111 VDD LPPFET W=0.9U L=0.12U M=1 
X17 net111 nmb VSS VSS LPNFET W=0.64U L=0.12U M=1 
X18 VDD net110 S VDD LPPFET W=1.28U L=0.12U M=1 
X19 S net110 VSS VSS LPNFET W=0.92U L=0.12U M=1 
X2 xn nma net111 VDD LPPFET W=0.76U L=0.12U M=1 
X20 VDD net80 CO VDD LPPFET W=1.28U L=0.12U M=1 
X21 CO net80 VSS VSS LPNFET W=0.92U L=0.12U M=1 
X22 VDD CI nmcin VDD LPPFET W=0.5U L=0.12U M=1 
X23 nmcin CI VSS VSS LPNFET W=0.36U L=0.12U M=1 
X24 VDD B nmb VDD LPPFET W=1.28U L=0.12U M=1 
X25 nmb B VSS VSS LPNFET W=0.92U L=0.12U M=1 
X26 VDD A nma VDD LPPFET W=1.28U L=0.12U M=1 
X27 nma A VSS VSS LPNFET W=0.92U L=0.12U M=1 
X3 xo nma nmb VDD LPPFET W=0.76U L=0.12U M=1 
X4 nmcin xn net80 VDD LPPFET W=0.5U L=0.12U M=1 
X5 net80 xo nmb VDD LPPFET W=0.5U L=0.12U M=1 
X6 net110 CI xn VDD LPPFET W=0.5U L=0.12U M=1 
X7 net110 nmcin xo VDD LPPFET W=0.5U L=0.12U M=1 
X8 xo net111 nma VSS LPNFET W=0.36U L=0.12U M=1 
X9 xn nmb nma VSS LPNFET W=0.36U L=0.12U M=1 
.ENDS ADDFX2TS 

**** 
*.SUBCKT ADDFX4TS CO S A B CI 
.SUBCKT ADDFX4TS CO S A B CI VSS VDD
X0 xo nmb nma VDD LPPFET W=0.5U L=0.12U M=1 
X1 xn net111 nma VDD LPPFET W=0.5U L=0.12U M=1 
X10 xo nma net111 VSS LPNFET W=0.54U L=0.12U M=1 
X11 xn nma nmb VSS LPNFET W=0.54U L=0.12U M=1 
X12 nmcin xo net80 VSS LPNFET W=0.36U L=0.12U M=1 
X13 net80 xn nmb VSS LPNFET W=0.36U L=0.12U M=1 
X14 net110 nmcin xn VSS LPNFET W=0.36U L=0.12U M=1 
X15 net110 CI xo VSS LPNFET W=0.36U L=0.12U M=1 
X16 VDD nmb net111 VDD LPPFET W=0.9U L=0.12U M=1 
X17 net111 nmb VSS VSS LPNFET W=0.64U L=0.12U M=1 
X18 VDD net110 S VDD LPPFET W=2.56U L=0.12U M=1 
X19 S net110 VSS VSS LPNFET W=1.84U L=0.12U M=1 
X2 xn nma net111 VDD LPPFET W=0.68U L=0.12U M=1 
X20 VDD net80 CO VDD LPPFET W=2.56U L=0.12U M=1 
X21 CO net80 VSS VSS LPNFET W=1.84U L=0.12U M=1 
X22 VDD CI nmcin VDD LPPFET W=0.5U L=0.12U M=1 
X23 nmcin CI VSS VSS LPNFET W=0.36U L=0.12U M=1 
X24 VDD B nmb VDD LPPFET W=1.28U L=0.12U M=1 
X25 nmb B VSS VSS LPNFET W=0.9U L=0.12U M=1 
X26 VDD A nma VDD LPPFET W=1.28U L=0.12U M=1 
X27 nma A VSS VSS LPNFET W=0.92U L=0.12U M=1 
X3 xo nma nmb VDD LPPFET W=0.76U L=0.12U M=1 
X4 nmcin xn net80 VDD LPPFET W=0.5U L=0.12U M=1 
X5 net80 xo nmb VDD LPPFET W=0.5U L=0.12U M=1 
X6 net110 CI xn VDD LPPFET W=0.5U L=0.12U M=1 
X7 net110 nmcin xo VDD LPPFET W=0.5U L=0.12U M=1 
X8 xo net111 nma VSS LPNFET W=0.36U L=0.12U M=1 
X9 xn nmb nma VSS LPNFET W=0.36U L=0.12U M=1 
.ENDS ADDFX4TS 

**** 
*.SUBCKT ADDFXLTS CO S A B CI 
.SUBCKT ADDFXLTS CO S A B CI VSS VDD
X0 xo nmb nma VDD LPPFET W=0.56U L=0.12U M=1 
X1 xn net111 nma VDD LPPFET W=0.56U L=0.12U M=1 
X10 xo nma net111 VSS LPNFET W=0.32U L=0.12U M=1 
X11 xn nma nmb VSS LPNFET W=0.32U L=0.12U M=1 
X12 nmcin xo net80 VSS LPNFET W=0.32U L=0.12U M=1 
X13 net80 xn nmb VSS LPNFET W=0.32U L=0.12U M=1 
X14 net110 nmcin xn VSS LPNFET W=0.32U L=0.12U M=1 
X15 net110 CI xo VSS LPNFET W=0.32U L=0.12U M=1 
X16 VDD nmb net111 VDD LPPFET W=0.56U L=0.12U M=1 
X17 net111 nmb VSS VSS LPNFET W=0.32U L=0.12U M=1 
X18 VDD net110 S VDD LPPFET W=0.42U L=0.12U M=1 
X19 S net110 VSS VSS LPNFET W=0.24U L=0.12U M=1 
X2 xn nma net111 VDD LPPFET W=0.56U L=0.12U M=1 
X20 VDD net80 CO VDD LPPFET W=0.42U L=0.12U M=1 
X21 CO net80 VSS VSS LPNFET W=0.24U L=0.12U M=1 
X22 VDD CI nmcin VDD LPPFET W=0.28U L=0.12U M=1 
X23 nmcin CI VSS VSS LPNFET W=0.2U L=0.12U M=1 
X24 VDD B nmb VDD LPPFET W=0.56U L=0.12U M=1 
X25 nmb B VSS VSS LPNFET W=0.32U L=0.12U M=1 
X26 VDD A nma VDD LPPFET W=0.56U L=0.12U M=1 
X27 nma A VSS VSS LPNFET W=0.32U L=0.12U M=1 
X3 xo nma nmb VDD LPPFET W=0.56U L=0.12U M=1 
X4 nmcin xn net80 VDD LPPFET W=0.56U L=0.12U M=1 
X5 net80 xo nmb VDD LPPFET W=0.56U L=0.12U M=1 
X6 net110 CI xn VDD LPPFET W=0.56U L=0.12U M=1 
X7 net110 nmcin xo VDD LPPFET W=0.56U L=0.12U M=1 
X8 xo net111 nma VSS LPNFET W=0.32U L=0.12U M=1 
X9 xn nmb nma VSS LPNFET W=0.32U L=0.12U M=1 
.ENDS ADDFXLTS 

**** 
*.SUBCKT ADDHX1TS CO S A B 
.SUBCKT ADDHX1TS CO S A B VSS VDD
X0 hnet16 A VSS VSS LPNFET W=0.24U L=0.12U M=1 
X1 net27 B hnet16 VSS LPNFET W=0.24U L=0.12U M=1 
X10 VDD B nmb VDD LPPFET W=0.5U L=0.12U M=1 
X11 nmb B VSS VSS LPNFET W=0.36U L=0.12U M=1 
X12 VDD net46 net45 VDD LPPFET W=1.28U L=0.12U M=1 
X13 net45 net46 VSS VSS LPNFET W=0.92U L=0.12U M=1 
X14 VDD A net46 VDD LPPFET W=1.78U L=0.12U M=1 
X15 net46 A VSS VSS LPNFET W=1.28U L=0.12U M=1 
X2 VDD A net27 VDD LPPFET W=0.28U L=0.12U M=1 
X3 VDD B net27 VDD LPPFET W=0.28U L=0.12U M=1 
X4 S B net45 VDD LPPFET W=1.24U L=0.12U M=1 
X5 S nmb net46 VDD LPPFET W=1.24U L=0.12U M=1 
X6 S nmb net45 VSS LPNFET W=0.92U L=0.12U M=1 
X7 S B net46 VSS LPNFET W=0.92U L=0.12U M=1 
X8 VDD net27 CO VDD LPPFET W=0.64U L=0.12U M=1 
X9 CO net27 VSS VSS LPNFET W=0.46U L=0.12U M=1 
.ENDS ADDHX1TS 

**** 
*.SUBCKT ADDHX2TS CO S A B 
.SUBCKT ADDHX2TS CO S A B VSS VDD
X0 hnet16 A VSS VSS LPNFET W=0.48U L=0.12U M=1 
X1 net27 B hnet16 VSS LPNFET W=0.48U L=0.12U M=1 
X10 VDD B nmb VDD LPPFET W=1U L=0.12U M=1 
X11 nmb B VSS VSS LPNFET W=0.74U L=0.12U M=1 
X12 VDD net46 net45 VDD LPPFET W=2.56U L=0.12U M=1 
X13 net45 net46 VSS VSS LPNFET W=1.78U L=0.12U M=1 
X14 VDD A net46 VDD LPPFET W=3.6U L=0.12U M=1 
X15 net46 A VSS VSS LPNFET W=2.58U L=0.12U M=1 
X2 VDD A net27 VDD LPPFET W=0.5U L=0.12U M=1 
X3 VDD B net27 VDD LPPFET W=0.5U L=0.12U M=1 
X4 S B net45 VDD LPPFET W=2.54U L=0.12U M=1 
X5 S nmb net46 VDD LPPFET W=2.54U L=0.12U M=1 
X6 S nmb net45 VSS LPNFET W=1.72U L=0.12U M=1 
X7 S B net46 VSS LPNFET W=1.78U L=0.12U M=1 
X8 VDD net27 CO VDD LPPFET W=1.28U L=0.12U M=1 
X9 CO net27 VSS VSS LPNFET W=0.92U L=0.12U M=1 
.ENDS ADDHX2TS 

**** 
*.SUBCKT ADDHX4TS CO S A B 
.SUBCKT ADDHX4TS CO S A B VSS VDD
X0 hnet16 A VSS VSS LPNFET W=0.92U L=0.12U M=1 
X1 net27 B hnet16 VSS LPNFET W=0.92U L=0.12U M=1 
X10 VDD B nmb VDD LPPFET W=1.96U L=0.12U M=1 
X11 nmb B VSS VSS LPNFET W=1.44U L=0.12U M=1 
X12 VDD net46 net45 VDD LPPFET W=5.12U L=0.12U M=1 
X13 net45 net46 VSS VSS LPNFET W=3.68U L=0.12U M=1 
X14 VDD A net46 VDD LPPFET W=7.18U L=0.12U M=1 
X15 net46 A VSS VSS LPNFET W=4.6U L=0.12U M=1 
X2 VDD A net27 VDD LPPFET W=0.92U L=0.12U M=1 
X3 VDD B net27 VDD LPPFET W=0.92U L=0.12U M=1 
X4 S B net45 VDD LPPFET W=4.96U L=0.12U M=1 
X5 S nmb net46 VDD LPPFET W=4.96U L=0.12U M=1 
X6 S nmb net45 VSS LPNFET W=3.68U L=0.12U M=1 
X7 S B net46 VSS LPNFET W=3.68U L=0.12U M=1 
X8 VDD net27 CO VDD LPPFET W=2.56U L=0.12U M=1 
X9 CO net27 VSS VSS LPNFET W=1.84U L=0.12U M=1 
.ENDS ADDHX4TS 

**** 
*.SUBCKT ADDHXLTS CO S A B 
.SUBCKT ADDHXLTS CO S A B VSS VDD
X0 hnet16 A VSS VSS LPNFET W=0.26U L=0.12U M=1 
X1 net27 B hnet16 VSS LPNFET W=0.26U L=0.12U M=1 
X10 VDD B nmb VDD LPPFET W=0.28U L=0.12U M=1 
X11 nmb B VSS VSS LPNFET W=0.2U L=0.12U M=1 
X12 VDD net46 net45 VDD LPPFET W=0.42U L=0.12U M=1 
X13 net45 net46 VSS VSS LPNFET W=0.24U L=0.12U M=1 
X14 VDD A net46 VDD LPPFET W=0.42U L=0.12U M=1 
X15 net46 A VSS VSS LPNFET W=0.24U L=0.12U M=1 
X2 VDD A net27 VDD LPPFET W=0.28U L=0.12U M=1 
X3 VDD B net27 VDD LPPFET W=0.28U L=0.12U M=1 
X4 S B net45 VDD LPPFET W=0.56U L=0.12U M=1 
X5 S nmb net46 VDD LPPFET W=0.56U L=0.12U M=1 
X6 S nmb net45 VSS LPNFET W=0.32U L=0.12U M=1 
X7 S B net46 VSS LPNFET W=0.32U L=0.12U M=1 
X8 VDD net27 CO VDD LPPFET W=0.42U L=0.12U M=1 
X9 CO net27 VSS VSS LPNFET W=0.24U L=0.12U M=1 
.ENDS ADDHXLTS 

**** 
*.SUBCKT AFCSHCINX2TS CO0 CO1 S A B CI0N CI1N CS 
.SUBCKT AFCSHCINX2TS CO0 CO1 S A B CI0N CI1N CS VSS VDD
X0 net178 CS net233 VDD LPPFET W=0.96U L=0.12U M=1 
X1 net178 net134 net227 VDD LPPFET W=1.02U L=0.12U M=1 
X10 net208 net237 net241 VDD LPPFET W=1.22U L=0.12U M=1 
X11 net208 B net239 VDD LPPFET W=0.98U L=0.12U M=1 
X12 net214 net237 net239 VDD LPPFET W=0.9U L=0.12U M=1 
X13 net214 B net241 VDD LPPFET W=1.22U L=0.12U M=1 
X14 net178 net134 net233 VSS LPNFET W=0.66U L=0.12U M=1 
X15 net178 CS net227 VSS LPNFET W=0.74U L=0.12U M=1 
X16 CO1 net208 net243 VSS LPNFET W=0.6U L=0.12U M=1 
X17 CO1 net214 net229 VSS LPNFET W=0.82U L=0.12U M=1 
X18 net190 net208 net229 VSS LPNFET W=0.58U L=0.12U M=1 
X19 net190 net214 net225 VSS LPNFET W=0.58U L=0.12U M=1 
X2 CO1 net214 net243 VDD LPPFET W=0.98U L=0.12U M=1 
X20 CO0 net208 net219 VSS LPNFET W=0.6U L=0.12U M=1 
X21 CO0 net214 net235 VSS LPNFET W=0.68U L=0.12U M=1 
X22 net202 net208 net235 VSS LPNFET W=0.58U L=0.12U M=1 
X23 net202 net214 net231 VSS LPNFET W=0.58U L=0.12U M=1 
X24 net208 B net241 VSS LPNFET W=0.84U L=0.12U M=1 
X25 net208 net237 net239 VSS LPNFET W=0.66U L=0.12U M=1 
X26 net214 B net239 VSS LPNFET W=0.92U L=0.12U M=1 
X27 net214 net237 net241 VSS LPNFET W=0.58U L=0.12U M=1 
X28 VDD CI1N net215 VDD LPPFET W=0.34U L=0.12U M=1 
X29 net215 CI1N VSS VSS LPNFET W=0.24U L=0.12U M=1 
X3 CO1 net208 net229 VDD LPPFET W=1.3U L=0.12U M=1 
X30 VDD CI0N net217 VDD LPPFET W=0.34U L=0.12U M=1 
X31 net217 CI0N VSS VSS LPNFET W=0.24U L=0.12U M=1 
X32 VDD net237 net219 VDD LPPFET W=1.3U L=0.12U M=1 