*include model and subckts
.lib '/tools2/courses/ee6321/share/IBM_PDK/cmrf8sf/relDM/HSPICE/models/allModels.inc' tt
.include '/tools2/courses/ee6321/share/IBM_PDK/cmrf8sf/relDM/HSPICE/models/design.inc'
.include '/user2/spring13/asc2171/avlsi/project/ELEN6321/simulation_vlsi/lib/subckts.sp'


.TEMP 25
*define options
 .option post=1
 .option accurate=1
 .option gmin=1e-15
 .option gmindc=1.0e-15
 .option method=gear

*circuit instantiation
X1AND2XLTS a_i b_i out gnd vdd AND2XLTS
x1OR2XLTS na_i nb_i nout gnd vdd OR2XLTS
x1INVXLTS na_i a_i gnd vdd INVXLTS
x2INVXLTS nb_i b_i gnd vdd INVXLTS

*power and input signals
va_i a_i 0 PULSE(0.01 1.2 0 100n 100n 1.9u 4u)
vb_i b_i 0 PULSE(0.01 1.2 0 100n 100n 1u 2u)
vprechrg_i prechrg_i 0 PULSE(0.01 1.2 0 100n 100n 0.6u 1u)  
vgnd gnd 0 dc=0
vwddlvdd vdd 0 dc=1.2

*measurements
.TRAN 300n 10u
.MEASURE avg_pow AVG power FROM=1u TO=10u
.PLOT TRAN P(vwddlvdd) 
.end
